Circuit: * Z:\home\maximilian\UppSense\ltspice\transimpedance_amplifier\008transimpedance_ada4530_ext_amps_trans.asc

Instance "m:u3:4": Length shorter than recommended for a level 2 MOSFET.
Instance "m:u3:3": Length shorter than recommended for a level 2 MOSFET.
Instance "m:u3:2": Length shorter than recommended for a level 2 MOSFET.
Instance "m:u3:1": Length shorter than recommended for a level 2 MOSFET.
Instance "m:u2:4": Length shorter than recommended for a level 2 MOSFET.
Instance "m:u2:3": Length shorter than recommended for a level 2 MOSFET.
Instance "m:u2:2": Length shorter than recommended for a level 2 MOSFET.
Instance "m:u2:1": Length shorter than recommended for a level 2 MOSFET.
Direct Newton iteration failed to find .op point.  (Use ".option noopiter" to skip.)
Starting Gmin stepping
Gmin = 10
Gmin = 1.07374
vernier = 0.5
vernier = 0.25
vernier = 0.125
vernier = 0.0625
Gmin = 1.1391
vernier = 0.03125
vernier = 0.015625
vernier = 0.0078125
vernier = 0.00390625
Gmin = 1.12477
vernier = 0.00195313
vernier = 0.000976563
Gmin = 1.12121
vernier = 0.00130208
Gmin = 1.11793
vernier = 0.00173611
vernier = 0.00231481
vernier = 0.00115741
Gmin = 1.11437
vernier = 0.00154321
vernier = 0.00205761
Gmin = 1.11026
vernier = 0.00102881
vernier = 0.00137174
Gmin = 1.10789
vernier = 0.00182899
vernier = 0.000914493
vernier = 0.00121932
Gmin = 1.10552
vernier = 0.00162576
Gmin = 1.1016
vernier = 0.000812882
vernier = 0.00108384
Gmin = 1.09959
vernier = 0.00144512
vernier = 0.00192683
Gmin = 1.09579
vernier = 0.000963415
vernier = 0.00128455
Gmin = 1.09359
vernier = 0.00171274
vernier = 0.000856369
vernier = 0.00114182
Gmin = 1.09141
vernier = 0.00152243
vernier = 0.000761216
Gmin = 1.08923
vernier = 0.00101495
vernier = 0.00135327
Gmin = 1.08642
vernier = 0.00180436
Gmin = 1.08202
vernier = 0.00240582
vernier = 0.00320776
Gmin = 1.07468
vernier = 0.00160388
vernier = 0.0021385
Gmin = 1.07052
vernier = 0.00106925
vernier = 0.000534626
vernier = 0.000400969
Gmin = 0
Gmin stepping failed

Starting source stepping with srcstepmethod=0
Source Step = 3.0303%
Source Step = 33.3333%
Source Step = 63.6364%
Source Step = 93.9394%
Source stepping succeeded in finding the operating point.

Direct Newton iteration failed to find .op point.  (Use ".option noopiter" to skip.)
Starting Gmin stepping
Gmin = 10
Gmin = 1.07374
vernier = 0.5
vernier = 0.25
vernier = 0.125
vernier = 0.0625
Gmin = 1.1391
vernier = 0.03125
vernier = 0.015625
vernier = 0.0078125
vernier = 0.00390625
Gmin = 1.12477
vernier = 0.00195313
vernier = 0.000976563
Gmin = 1.12121
vernier = 0.00130208
Gmin = 1.11793
vernier = 0.00173611
vernier = 0.00231481
vernier = 0.00115741
Gmin = 1.11437
vernier = 0.00154321
vernier = 0.00205761
Gmin = 1.11026
vernier = 0.00102881
vernier = 0.00137174
Gmin = 1.10789
vernier = 0.00182899
vernier = 0.000914493
vernier = 0.00121932
Gmin = 1.10552
vernier = 0.00162576
Gmin = 1.1016
vernier = 0.000812882
vernier = 0.00108384
Gmin = 1.09959
vernier = 0.00144512
vernier = 0.00192683
Gmin = 1.09579
vernier = 0.000963415
vernier = 0.00128455
Gmin = 1.09359
vernier = 0.00171274
vernier = 0.000856369
vernier = 0.00114182
Gmin = 1.09141
vernier = 0.00152243
vernier = 0.000761216
Gmin = 1.08923
vernier = 0.00101495
vernier = 0.00135327
Gmin = 1.08642
vernier = 0.00180436
Gmin = 1.08202
vernier = 0.00240582
vernier = 0.00320776
Gmin = 1.07468
vernier = 0.00160388
vernier = 0.0021385
Gmin = 1.07052
vernier = 0.00106925
vernier = 0.000534626
vernier = 0.000400969
Gmin = 0
Gmin stepping failed

Starting source stepping with srcstepmethod=0
Source Step = 3.0303%
Source Step = 33.3333%
Source Step = 63.6364%
Source Step = 93.9394%
Source stepping succeeded in finding the operating point.

Direct Newton iteration failed to find .op point.  (Use ".option noopiter" to skip.)
Starting Gmin stepping
Gmin = 10
Gmin = 1.07374
vernier = 0.5
vernier = 0.25
vernier = 0.125
vernier = 0.0625
Gmin = 1.1391
vernier = 0.03125
vernier = 0.015625
vernier = 0.0078125
vernier = 0.00390625
Gmin = 1.12477
vernier = 0.00195313
vernier = 0.000976563
Gmin = 1.12121
vernier = 0.00130208
Gmin = 1.11793
vernier = 0.00173611
vernier = 0.00231481
vernier = 0.00115741
Gmin = 1.11437
vernier = 0.00154321
vernier = 0.00205761
Gmin = 1.11026
vernier = 0.00102881
vernier = 0.00137174
Gmin = 1.10789
vernier = 0.00182899
vernier = 0.000914493
vernier = 0.00121932
Gmin = 1.10552
vernier = 0.00162576
Gmin = 1.1016
vernier = 0.000812882
vernier = 0.00108384
Gmin = 1.09959
vernier = 0.00144512
vernier = 0.00192683
Gmin = 1.09579
vernier = 0.000963415
vernier = 0.00128455
Gmin = 1.09359
vernier = 0.00171274
vernier = 0.000856369
vernier = 0.00114182
Gmin = 1.09141
vernier = 0.00152243
vernier = 0.000761216
Gmin = 1.08923
vernier = 0.00101495
vernier = 0.00135327
Gmin = 1.08642
vernier = 0.00180436
Gmin = 1.08202
vernier = 0.00240582
vernier = 0.00320776
Gmin = 1.07468
vernier = 0.00160388
vernier = 0.0021385
Gmin = 1.07052
vernier = 0.00106925
vernier = 0.000534626
vernier = 0.000400969
Gmin = 0
Gmin stepping failed

Starting source stepping with srcstepmethod=0
Source Step = 3.0303%
Source Step = 33.3333%
Source Step = 63.6364%
Source Step = 93.9394%
Source stepping succeeded in finding the operating point.


Date: Fri Jun 30 09:41:57 2017
Total elapsed time: 23.852 seconds.

tnom = 27
temp = 27
method = trap
totiter = 40353
traniter = 0
tranpoints = 0
accept = 0
rejected = 0
matrix size = 386
fillins = 597
solver = Normal
Thread vector: 36.6/18.0[4] 0.0/0.0[0] 10.4/5.6[4] 2.9/2.8[2]  2592/500
Matrix Compiler1: 47.54 KB object code size  21.6/10.7/[4.9]
Matrix Compiler2: 40.96 KB object code size  10.9/12.9/[4.1]

