Circuit: * Z:\home\maximilian\UppSense\ltspice\transimpedance_amplifier\011transimpedance_ltc6269_three_res.asc

Direct Newton iteration for .op point succeeded.

Date: Fri Jun 30 16:04:26 2017
Total elapsed time: 0.083 seconds.

tnom = 27
temp = 27
method = trap
totiter = 1475
traniter = 0
tranpoints = 0
accept = 0
rejected = 0
matrix size = 17
fillins = 17
solver = Normal
Matrix Compiler1:      93 opcodes  0.5/0.4/[0.2]
Matrix Compiler2: 1.90 KB object code size  0.3/0.4/[0.2]

