Circuit: * Z:\home\maximilian\UppSense\ltspice\current_source_max\driver_option1.asc

Instance "m:u1:6": Length shorter than recommended for a level 2 MOSFET.
Instance "m:u1:5": Length shorter than recommended for a level 2 MOSFET.
Instance "m:u1:4": Length shorter than recommended for a level 2 MOSFET.
Instance "m:u1:3": Length shorter than recommended for a level 2 MOSFET.
Instance "m:u1:2": Length shorter than recommended for a level 2 MOSFET.
Instance "m:u1:1": Length shorter than recommended for a level 2 MOSFET.
Direct Newton iteration for .op point succeeded.
.step rjump=1000
Changing Tseed to 1e-008
.step rjump=10000

Date: Wed Jun 28 11:03:33 2017
Total elapsed time: 0.220 seconds.

tnom = 27
temp = 27
method = modified trap
totiter = 2137
traniter = 2093
tranpoints = 1043
accept = 1042
rejected = 0
matrix size = 58
fillins = 33
solver = Normal
Matrix Compiler1: 4.57 KB object code size  1.7/0.7/[0.5]
Matrix Compiler2: 5.52 KB object code size  0.7/1.0/[0.7]

