Circuit: * Z:\home\maximilian\UppSense\ltspice\current_source_max\driver_option1.asc

Instance "m:u1:6": Length shorter than recommended for a level 2 MOSFET.
Instance "m:u1:5": Length shorter than recommended for a level 2 MOSFET.
Instance "m:u1:4": Length shorter than recommended for a level 2 MOSFET.
Instance "m:u1:3": Length shorter than recommended for a level 2 MOSFET.
Instance "m:u1:2": Length shorter than recommended for a level 2 MOSFET.
Instance "m:u1:1": Length shorter than recommended for a level 2 MOSFET.
Direct Newton iteration for .op point succeeded.

Date: Tue Jul 04 19:08:42 2017
Total elapsed time: 0.105 seconds.

tnom = 27
temp = 27
method = trap
totiter = 2096
traniter = 0
tranpoints = 0
accept = 0
rejected = 0
matrix size = 59
fillins = 33
solver = Normal
Matrix Compiler1: off  1.6/0.7/[0.6]
Matrix Compiler2: 5.56 KB object code size  1.2/0.9/[0.6]

