Circuit: * Z:\home\maximilian\UppSense\ltspice\magnet_driver\Draft1.asc

.OP point found by inspection.

Date: Wed Jul 05 13:31:08 2017
Total elapsed time: 0.584 seconds.

tnom = 27
temp = 27
method = modified trap
totiter = 56484
traniter = 56484
tranpoints = 28243
accept = 23637
rejected = 4606
matrix size = 4
fillins = 0
solver = Normal
Matrix Compiler1: 100 bytes object code size  0.3/0.2/[0.2]
Matrix Compiler2: 248 bytes object code size  0.2/0.2/[0.2]

