Circuit: * Z:\home\maximilian\UppSense\ltspice\magnet_driver\magnet_driver.asc

Direct Newton iteration for .op point succeeded.

Date: Tue Jul 25 11:07:27 2017
Total elapsed time: 0.228 seconds.

tnom = 27
temp = 27
method = modified trap
totiter = 18494
traniter = 18483
tranpoints = 6849
accept = 5549
rejected = 1300
matrix size = 24
fillins = 1
solver = Normal
Matrix Compiler1: 1.40 KB object code size  1.1/0.5/[0.4]
Matrix Compiler2: 1.95 KB object code size  0.5/0.7/[0.5]

